1NY2_001.4
  MOE2020           3D
1NY2_001
 63 64  0  0  1  0  0  0  0  0999 V2000
    2.2234   -2.7331   -1.3226 N   0  0  0  0  0  0  0  0  0  0  0  0
    2.3136   -2.7623   -2.3281 H   0  0  0  0  0  0  0  0  0  0  0  0
    1.4604   -3.3294   -1.0356 H   0  0  0  0  0  0  0  0  0  0  0  0
    1.9554   -1.3591   -0.8966 C   0  0  3  0  0  0  0  0  0  0  0  0
    0.9926   -1.3928   -0.3868 H   0  0  0  0  0  0  0  0  0  0  0  0
    1.8284   -0.3841   -2.0636 C   0  0  0  0  0  0  0  0  0  0  0  0
    2.5264    0.7089   -1.9716 O   0  0  0  0  0  0  0  0  0  0  0  0
    3.0464   -0.8501    0.0814 C   0  0  0  0  0  0  0  0  0  0  0  0
    3.4664    0.0613   -0.3441 H   0  0  0  0  0  0  0  0  0  0  0  0
    3.8199   -1.6162    0.1346 H   0  0  0  0  0  0  0  0  0  0  0  0
    2.6264   -0.5371    1.4884 C   0  0  0  0  0  0  0  0  0  0  0  0
    3.4480    0.0041    1.9577 H   0  0  0  0  0  0  0  0  0  0  0  0
    2.4783   -1.4880    2.0002 H   0  0  0  0  0  0  0  0  0  0  0  0
    1.4134    0.2569    1.6894 C   0  0  0  0  0  0  0  0  0  0  0  0
    0.8952   -0.1951    2.5351 H   0  0  0  0  0  0  0  0  0  0  0  0
    0.8167    0.1276    0.7865 H   0  0  0  0  0  0  0  0  0  0  0  0
    1.4374    1.6609    1.9474 N   0  0  0  0  0  0  0  0  0  0  0  0
    0.6246    1.9635    1.4299 H   0  0  0  0  0  0  0  0  0  0  0  0
    1.4424    2.5359    2.9374 C   0  0  3  0  0  0  0  0  0  0  0  0
    2.5321    2.5129    2.9505 H   0  0  0  0  0  0  0  0  0  0  0  0
    1.4224    2.2639    4.2564 N   0  0  0  0  0  0  0  0  0  0  0  0
    1.9084    2.9935    4.7580 H   0  0  0  0  0  0  0  0  0  0  0  0
    1.8784    1.3785    4.4245 H   0  0  0  0  0  0  0  0  0  0  0  0
    1.4754    3.8619    2.6484 N   0  3  0  0  0  0  0  0  0  0  0  0
    1.9536    4.3559    3.3882 H   0  0  0  0  0  0  0  0  0  0  0  0
    0.5316    4.2119    2.5651 H   0  0  0  0  0  0  0  0  0  0  0  0
    1.9655    4.0044    1.7769 H   0  0  0  0  0  0  0  0  0  0  0  0
    0.8964   -0.6101   -3.0006 N   0  0  0  0  0  0  0  0  0  0  0  0
    0.7294    0.2309   -4.1866 C   0  0  3  0  0  0  0  0  0  0  0  0
    1.7139    0.5748   -4.5038 H   0  0  0  0  0  0  0  0  0  0  0  0
    0.0094    1.5269   -3.9696 C   0  0  0  0  0  0  0  0  0  0  0  0
   -1.0336    1.5869   -3.3626 O   0  0  0  0  0  0  0  0  0  0  0  0
    0.0614   -0.6451   -5.2576 C   0  0  0  0  0  0  0  0  0  0  0  0
    0.5415   -0.5146   -6.2274 H   0  0  0  0  0  0  0  0  0  0  0  0
   -1.0010   -0.4177   -5.3446 H   0  0  0  0  0  0  0  0  0  0  0  0
    0.2774   -2.0431   -4.7266 C   0  0  0  0  0  0  0  0  0  0  0  0
    1.2709   -2.4122   -4.9813 H   0  0  0  0  0  0  0  0  0  0  0  0
   -0.4755   -2.7313   -5.1110 H   0  0  0  0  0  0  0  0  0  0  0  0
    0.1274   -1.8461   -3.1906 C   0  0  0  0  0  0  0  0  0  0  0  0
   -0.9159   -1.7189   -2.9016 H   0  0  0  0  0  0  0  0  0  0  0  0
    0.5596   -2.6780   -2.6345 H   0  0  0  0  0  0  0  0  0  0  0  0
    0.6114    2.5829   -4.4826 N   0  0  0  0  0  0  0  0  0  0  0  0
    0.0104    3.9249   -4.5276 C   0  0  3  0  0  0  0  0  0  0  0  0
   -0.5178    4.2278   -3.6235 H   0  0  0  0  0  0  0  0  0  0  0  0
   -1.0336    3.9619   -5.6916 C   0  0  0  0  0  0  0  0  0  0  0  0
   -0.9256    3.3149   -6.7716 O   0  0  0  0  0  0  0  0  0  0  0  0
    1.2274    4.8289   -4.8236 C   0  0  0  0  0  0  0  0  0  0  0  0
    1.8627    4.9560   -3.9470 H   0  0  0  0  0  0  0  0  0  0  0  0
    0.9261    5.8069   -5.1988 H   0  0  0  0  0  0  0  0  0  0  0  0
    1.9094    3.9849   -5.9076 C   0  0  0  0  0  0  0  0  0  0  0  0
    2.9213    4.3354   -6.1109 H   0  0  0  0  0  0  0  0  0  0  0  0
    1.3337    3.9802   -6.8332 H   0  0  0  0  0  0  0  0  0  0  0  0
    1.9144    2.5819   -5.2286 C   0  0  0  0  0  0  0  0  0  0  0  0
    1.9437    1.7842   -5.9709 H   0  0  0  0  0  0  0  0  0  0  0  0
    2.7590    2.4758   -4.5478 H   0  0  0  0  0  0  0  0  0  0  0  0
   -2.0256    4.8399   -5.4486 N   0  0  0  0  0  0  0  0  0  0  0  0
   -2.0022    5.3414   -4.5722 H   0  0  0  0  0  0  0  0  0  0  0  0
   -3.1356    5.1209   -6.3616 C   0  0  0  0  0  0  0  0  0  0  0  0
   -4.0437    5.3246   -5.7942 H   0  0  0  0  0  0  0  0  0  0  0  0
   -3.3024    4.2687   -7.0204 H   0  0  0  0  0  0  0  0  0  0  0  0
   -2.7406    6.3609   -7.1906 C   0  0  0  0  0  0  0  0  0  0  0  0
   -3.3180    7.2712   -7.1253 H   0  0  0  0  0  0  0  0  0  0  0  0
   -1.7126    6.2929   -7.9606 O   0  0  0  0  0  0  0  0  0  0  0  0
  1  2  1  0  0  0  0
  1  3  1  0  0  0  0
  1  4  1  0  0  0  0
  4  5  1  0  0  0  0
  4  6  1  0  0  0  0
  4  8  1  0  0  0  0
  6  7  2  0  0  0  0
  6 28  1  0  0  0  0
  8  9  1  0  0  0  0
  8 10  1  0  0  0  0
  8 11  1  0  0  0  0
 11 12  1  0  0  0  0
 11 13  1  0  0  0  0
 11 14  1  0  0  0  0
 14 15  1  0  0  0  0
 14 16  1  0  0  0  0
 14 17  1  0  0  0  0
 17 18  1  0  0  0  0
 17 19  1  0  0  0  0
 19 20  1  0  0  0  0
 19 21  1  0  0  0  0
 19 24  1  0  0  0  0
 21 22  1  0  0  0  0
 21 23  1  0  0  0  0
 24 25  1  0  0  0  0
 24 26  1  0  0  0  0
 24 27  1  0  0  0  0
 28 29  1  0  0  0  0
 28 39  1  0  0  0  0
 29 30  1  0  0  0  0
 29 31  1  0  0  0  0
 29 33  1  0  0  0  0
 31 32  2  0  0  0  0
 31 42  1  0  0  0  0
 33 34  1  0  0  0  0
 33 35  1  0  0  0  0
 33 36  1  0  0  0  0
 36 37  1  0  0  0  0
 36 38  1  0  0  0  0
 36 39  1  0  0  0  0
 39 40  1  0  0  0  0
 39 41  1  0  0  0  0
 42 43  1  0  0  0  0
 42 53  1  0  0  0  0
 43 44  1  0  0  0  0
 43 45  1  0  0  0  0
 43 47  1  0  0  0  0
 45 46  2  0  0  0  0
 45 56  1  0  0  0  0
 47 48  1  0  0  0  0
 47 49  1  0  0  0  0
 47 50  1  0  0  0  0
 50 51  1  0  0  0  0
 50 52  1  0  0  0  0
 50 53  1  0  0  0  0
 53 54  1  0  0  0  0
 53 55  1  0  0  0  0
 56 57  1  0  0  0  0
 56 58  1  0  0  0  0
 58 59  1  0  0  0  0
 58 60  1  0  0  0  0
 58 61  1  0  0  0  0
 61 62  1  0  0  0  0
 61 63  2  0  0  0  0
M  CHG  1  24   1
M  END
$$$$
