4MK8.A
  MOE2020           3D
TRANSFERASE/TRANSFERASE INHIBITOR
 62 64  0  0  0  0  0  0  0  0999 V2000
  -51.1180   -8.9210  -13.5710 C   0  0  0  0  0  0  0  0  0  0  0  0
  -51.1907   -8.9598  -14.6479 H   0  0  0  0  0  0  0  0  0  0  0  0
  -50.0030   -9.4860  -12.9490 C   0  0  0  0  0  0  0  0  0  0  0  0
  -49.9720   -9.4410  -11.5230 C   0  0  0  0  0  0  0  0  0  0  0  0
  -50.9900   -8.8280  -10.7750 C   0  0  0  0  0  0  0  0  0  0  0  0
  -52.0670   -8.2690  -11.4590 C   0  0  0  0  0  0  0  0  0  0  0  0
  -52.8613   -7.7953  -10.9012 H   0  0  0  0  0  0  0  0  0  0  0  0
  -52.1380   -8.3100  -12.8500 C   0  0  0  0  0  0  0  0  0  0  0  0
  -53.3100   -7.7320  -13.5600 C   0  0  0  0  0  0  0  0  0  0  0  0
  -53.9260   -8.4060  -14.5930 C   0  0  0  0  0  0  0  0  0  0  0  0
  -53.5743   -9.3903  -14.8649 H   0  0  0  0  0  0  0  0  0  0  0  0
  -55.0130   -7.8350  -15.3080 C   0  0  0  0  0  0  0  0  0  0  0  0
  -55.4826   -8.3734  -16.1180 H   0  0  0  0  0  0  0  0  0  0  0  0
  -55.4490   -6.6020  -14.9540 C   0  0  0  0  0  0  0  0  0  0  0  0
  -56.2626   -6.1461  -15.4985 H   0  0  0  0  0  0  0  0  0  0  0  0
  -54.8720   -5.9320  -13.9190 N   0  0  0  0  0  0  0  0  0  0  0  0
  -55.2469   -5.0247  -13.6815 H   0  0  0  0  0  0  0  0  0  0  0  0
  -53.7900   -6.4120  -13.1550 C   0  0  0  0  0  0  0  0  0  0  0  0
  -53.3310   -5.7360  -12.2300 O   0  0  0  0  0  0  0  0  0  0  0  0
  -50.9460   -8.7070   -9.2570 C   0  0  0  0  0  0  0  0  0  0  0  0
  -50.9283   -7.6509   -8.9880 H   0  0  0  0  0  0  0  0  0  0  0  0
  -50.0401   -9.1903   -8.8911 H   0  0  0  0  0  0  0  0  0  0  0  0
  -52.1880   -9.3810   -8.5810 C   0  0  0  0  0  0  0  0  0  0  0  0
  -52.2083  -10.4308   -8.8735 H   0  0  0  0  0  0  0  0  0  0  0  0
  -53.0870   -8.8846   -8.9464 H   0  0  0  0  0  0  0  0  0  0  0  0
  -52.1880   -9.3100   -7.0750 C   0  0  0  0  0  0  0  0  0  0  0  0
  -51.6440  -10.3380   -6.3130 C   0  0  0  0  0  0  0  0  0  0  0  0
  -51.1259  -11.1472   -6.8061 H   0  0  0  0  0  0  0  0  0  0  0  0
  -51.7550  -10.3420   -4.9340 C   0  0  0  0  0  0  0  0  0  0  0  0
  -51.3267  -11.1512   -4.3612 H   0  0  0  0  0  0  0  0  0  0  0  0
  -52.4170   -9.3060   -4.2840 C   0  0  0  0  0  0  0  0  0  0  0  0
  -52.9330   -8.2570   -5.0370 C   0  0  0  0  0  0  0  0  0  0  0  0
  -53.4263   -7.4326   -4.5436 H   0  0  0  0  0  0  0  0  0  0  0  0
  -52.8170   -8.2650   -6.4160 C   0  0  0  0  0  0  0  0  0  0  0  0
  -53.2231   -7.4439   -6.9881 H   0  0  0  0  0  0  0  0  0  0  0  0
  -52.5950   -9.3740   -2.8700 N   0  0  0  0  0  0  0  0  0  0  0  0
  -52.3375  -10.2465   -2.4313 H   0  0  0  0  0  0  0  0  0  0  0  0
  -53.1620   -8.2170   -1.8810 S   0  0  0  0  0  0  0  0  0  0  0  0
  -52.8860   -8.6590   -0.5490 O   0  0  0  0  0  0  0  0  0  0  0  0
  -52.6110   -6.9700   -2.3180 O   0  0  0  0  0  0  0  0  0  0  0  0
  -54.8970   -8.1750   -2.0950 C   0  0  0  0  0  0  0  0  0  0  0  0
  -55.3268   -9.1207   -1.7649 H   0  0  0  0  0  0  0  0  0  0  0  0
  -55.1295   -8.0182   -3.1483 H   0  0  0  0  0  0  0  0  0  0  0  0
  -55.3162   -7.3599   -1.5052 H   0  0  0  0  0  0  0  0  0  0  0  0
  -48.8600   -9.9330  -10.8620 O   0  0  0  0  0  0  0  0  0  0  0  0
  -49.0120  -11.1810  -10.1850 C   0  0  0  0  0  0  0  0  0  0  0  0
  -48.0699  -11.4534   -9.7093 H   0  0  0  0  0  0  0  0  0  0  0  0
  -49.2928  -11.9518  -10.9027 H   0  0  0  0  0  0  0  0  0  0  0  0
  -49.7893  -11.0905   -9.4263 H   0  0  0  0  0  0  0  0  0  0  0  0
  -48.8270   -9.9340  -13.8610 C   0  0  0  0  0  0  0  0  0  0  0  0
  -49.1930   -9.8630  -15.3550 C   0  0  0  0  0  0  0  0  0  0  0  0
  -49.5047   -8.8489  -15.6049 H   0  0  0  0  0  0  0  0  0  0  0  0
  -50.0088  -10.5554  -15.5625 H   0  0  0  0  0  0  0  0  0  0  0  0
  -48.3245  -10.1344  -15.9551 H   0  0  0  0  0  0  0  0  0  0  0  0
  -47.6010   -9.0160  -13.6650 C   0  0  0  0  0  0  0  0  0  0  0  0
  -47.8890   -7.9810  -13.8491 H   0  0  0  0  0  0  0  0  0  0  0  0
  -46.8157   -9.3044  -14.3637 H   0  0  0  0  0  0  0  0  0  0  0  0
  -47.2328   -9.1146  -12.6438 H   0  0  0  0  0  0  0  0  0  0  0  0
  -48.4030  -11.3850  -13.5980 C   0  0  0  0  0  0  0  0  0  0  0  0
  -49.2604  -12.0442  -13.7332 H   0  0  0  0  0  0  0  0  0  0  0  0
  -48.0322  -11.4758  -12.5770 H   0  0  0  0  0  0  0  0  0  0  0  0
  -47.6151  -11.6657  -14.2970 H   0  0  0  0  0  0  0  0  0  0  0  0
  1  2  1  0  0  0  0
  1  3  1  0  0  0  0
  1  8  2  0  0  0  0
  3  4  2  0  0  0  0
  3 50  1  0  0  0  0
  4  5  1  0  0  0  0
  4 45  1  0  0  0  0
  5  6  2  0  0  0  0
  5 20  1  0  0  0  0
  6  7  1  0  0  0  0
  6  8  1  0  0  0  0
  8  9  1  0  0  0  0
  9 10  2  0  0  0  0
  9 18  1  0  0  0  0
 10 11  1  0  0  0  0
 10 12  1  0  0  0  0
 12 13  1  0  0  0  0
 12 14  2  0  0  0  0
 14 15  1  0  0  0  0
 14 16  1  0  0  0  0
 16 17  1  0  0  0  0
 16 18  1  0  0  0  0
 18 19  2  0  0  0  0
 20 21  1  0  0  0  0
 20 22  1  0  0  0  0
 20 23  1  0  0  0  0
 23 24  1  0  0  0  0
 23 25  1  0  0  0  0
 23 26  1  0  0  0  0
 26 27  1  0  0  0  0
 26 34  2  0  0  0  0
 27 28  1  0  0  0  0
 27 29  2  0  0  0  0
 29 30  1  0  0  0  0
 29 31  1  0  0  0  0
 31 32  2  0  0  0  0
 31 36  1  0  0  0  0
 32 33  1  0  0  0  0
 32 34  1  0  0  0  0
 34 35  1  0  0  0  0
 36 37  1  0  0  0  0
 36 38  1  0  0  0  0
 38 39  2  0  0  0  0
 38 40  2  0  0  0  0
 38 41  1  0  0  0  0
 41 42  1  0  0  0  0
 41 43  1  0  0  0  0
 41 44  1  0  0  0  0
 45 46  1  0  0  0  0
 46 47  1  0  0  0  0
 46 48  1  0  0  0  0
 46 49  1  0  0  0  0
 50 51  1  0  0  0  0
 50 55  1  0  0  0  0
 50 59  1  0  0  0  0
 51 52  1  0  0  0  0
 51 53  1  0  0  0  0
 51 54  1  0  0  0  0
 55 56  1  0  0  0  0
 55 57  1  0  0  0  0
 55 58  1  0  0  0  0
 59 60  1  0  0  0  0
 59 61  1  0  0  0  0
 59 62  1  0  0  0  0
M  END
$$$$
